data/nesta/api/nesta_case57_ieee__api.m
%%%%%%%%%%%%%%%%%%%%%%%%%%%%%%%%%%%%%%%%%%%%%%%%%%%%%%%%%%%%%%%%%%%%%%%%%%%
%%%%                                                                  %%%%%
%%%%      NICTA Energy System Test Case Archive (NESTA) - v0.1.5      %%%%%
%%%%            Optimal Power Flow - Active Power Increase            %%%%%
%%%%                       30 - October - 2014                        %%%%%
%%%%                                                                  %%%%%
%%%%%%%%%%%%%%%%%%%%%%%%%%%%%%%%%%%%%%%%%%%%%%%%%%%%%%%%%%%%%%%%%%%%%%%%%%%
function mpc = nesta_case57_ieee__api
mpc.version = '2';
mpc.baseMVA = 100.0;

%% bus data
%	bus_i	type	Pd	Qd	Gs	Bs	area	Vm	Va	baseKV	zone	Vmax	Vmin
mpc.bus = [
	1	 3	 63.42	 17.00	 0.0	 0.0	 1	     1.0400	     0.0000	 0.0	 1	     1.0600	     0.9400;
	2	 2	 3.46	 88.00	 0.0	 0.0	 1	     1.0100	    -1.1800	 0.0	 1	     1.0600	     0.9400;
	3	 2	 47.28	 21.00	 0.0	 0.0	 1	     0.9850	    -5.9700	 0.0	 1	     1.0600	     0.9400;
	4	 1	 0.00	 0.00	 0.0	 0.0	 1	     0.9810	    -7.3200	 0.0	 1	     1.0600	     0.9400;
	5	 1	 14.99	 4.00	 0.0	 0.0	 1	     0.9760	    -8.5200	 0.0	 1	     1.0600	     0.9400;
	6	 2	 86.49	 2.00	 0.0	 0.0	 1	     0.9800	    -8.6500	 0.0	 1	     1.0600	     0.9400;
	7	 1	 0.00	 0.00	 0.0	 0.0	 1	     0.9840	    -7.5800	 0.0	 1	     1.0600	     0.9400;
	8	 2	 172.98	 22.00	 0.0	 0.0	 1	     1.0050	    -4.4500	 0.0	 1	     1.0600	     0.9400;
	9	 2	 139.53	 26.00	 0.0	 0.0	 1	     0.9800	    -9.5600	 0.0	 1	     1.0600	     0.9400;
	10	 1	 5.77	 2.00	 0.0	 0.0	 1	     0.9860	   -11.4300	 0.0	 1	     1.0600	     0.9400;
	11	 1	 0.00	 0.00	 0.0	 0.0	 1	     0.9740	   -10.1700	 0.0	 1	     1.0600	     0.9400;
	12	 2	 434.75	 24.00	 0.0	 0.0	 1	     1.0150	   -10.4600	 0.0	 1	     1.0600	     0.9400;
	13	 1	 20.76	 2.30	 0.0	 0.0	 1	     0.9790	    -9.7900	 0.0	 1	     1.0600	     0.9400;
	14	 1	 12.11	 5.30	 0.0	 0.0	 1	     0.9700	    -9.3300	 0.0	 1	     1.0600	     0.9400;
	15	 1	 25.37	 5.00	 0.0	 0.0	 1	     0.9880	    -7.1800	 0.0	 1	     1.0600	     0.9400;
	16	 1	 49.59	 3.00	 0.0	 0.0	 1	     1.0130	    -8.8500	 0.0	 1	     1.0600	     0.9400;
	17	 1	 48.43	 8.00	 0.0	 0.0	 1	     1.0170	    -5.3900	 0.0	 1	     1.0600	     0.9400;
	18	 1	 31.37	 9.80	 0.0	 10.0	 1	     1.0010	   -11.7100	 0.0	 1	     1.0600	     0.9400;
	19	 1	 3.81	 0.60	 0.0	 0.0	 1	     0.9700	   -13.2000	 0.0	 1	     1.0600	     0.9400;
	20	 1	 2.65	 1.00	 0.0	 0.0	 1	     0.9640	   -13.4100	 0.0	 1	     1.0600	     0.9400;
	21	 1	 0.00	 0.00	 0.0	 0.0	 1	     1.0080	   -12.8900	 0.0	 1	     1.0600	     0.9400;
	22	 1	 0.00	 0.00	 0.0	 0.0	 1	     1.0100	   -12.8400	 0.0	 1	     1.0600	     0.9400;
	23	 1	 7.27	 2.10	 0.0	 0.0	 1	     1.0080	   -12.9100	 0.0	 1	     1.0600	     0.9400;
	24	 1	 0.00	 0.00	 0.0	 0.0	 1	     0.9990	   -13.2500	 0.0	 1	     1.0600	     0.9400;
	25	 1	 7.27	 3.20	 0.0	 5.9	 1	     0.9820	   -18.1300	 0.0	 1	     1.0600	     0.9400;
	26	 1	 0.00	 0.00	 0.0	 0.0	 1	     0.9590	   -12.9500	 0.0	 1	     1.0600	     0.9400;
	27	 1	 10.72	 0.50	 0.0	 0.0	 1	     0.9820	   -11.4800	 0.0	 1	     1.0600	     0.9400;
	28	 1	 5.30	 2.30	 0.0	 0.0	 1	     0.9970	   -10.4500	 0.0	 1	     1.0600	     0.9400;
	29	 1	 19.60	 2.60	 0.0	 0.0	 1	     1.0100	    -9.7500	 0.0	 1	     1.0600	     0.9400;
	30	 1	 4.15	 1.80	 0.0	 0.0	 1	     0.9620	   -18.6800	 0.0	 1	     1.0600	     0.9400;
	31	 1	 6.69	 2.90	 0.0	 0.0	 1	     0.9360	   -19.3400	 0.0	 1	     1.0600	     0.9400;
	32	 1	 1.85	 0.80	 0.0	 0.0	 1	     0.9490	   -18.4600	 0.0	 1	     1.0600	     0.9400;
	33	 1	 4.38	 1.90	 0.0	 0.0	 1	     0.9470	   -18.5000	 0.0	 1	     1.0600	     0.9400;
	34	 1	 0.00	 0.00	 0.0	 0.0	 1	     0.9590	   -14.1000	 0.0	 1	     1.0600	     0.9400;
	35	 1	 6.92	 3.00	 0.0	 0.0	 1	     0.9660	   -13.8600	 0.0	 1	     1.0600	     0.9400;
	36	 1	 0.00	 0.00	 0.0	 0.0	 1	     0.9760	   -13.5900	 0.0	 1	     1.0600	     0.9400;
	37	 1	 0.00	 0.00	 0.0	 0.0	 1	     0.9850	   -13.4100	 0.0	 1	     1.0600	     0.9400;
	38	 1	 16.14	 7.00	 0.0	 0.0	 1	     1.0130	   -12.7100	 0.0	 1	     1.0600	     0.9400;
	39	 1	 0.00	 0.00	 0.0	 0.0	 1	     0.9830	   -13.4600	 0.0	 1	     1.0600	     0.9400;
	40	 1	 0.00	 0.00	 0.0	 0.0	 1	     0.9730	   -13.6200	 0.0	 1	     1.0600	     0.9400;
	41	 1	 7.27	 3.00	 0.0	 0.0	 1	     0.9960	   -14.0500	 0.0	 1	     1.0600	     0.9400;
	42	 1	 8.19	 4.40	 0.0	 0.0	 1	     0.9660	   -15.5000	 0.0	 1	     1.0600	     0.9400;
	43	 1	 2.31	 1.00	 0.0	 0.0	 1	     1.0100	   -11.3300	 0.0	 1	     1.0600	     0.9400;
	44	 1	 13.84	 1.80	 0.0	 0.0	 1	     1.0170	   -11.8600	 0.0	 1	     1.0600	     0.9400;
	45	 1	 0.00	 0.00	 0.0	 0.0	 1	     1.0360	    -9.2500	 0.0	 1	     1.0600	     0.9400;
	46	 1	 0.00	 0.00	 0.0	 0.0	 1	     1.0500	   -11.8900	 0.0	 1	     1.0600	     0.9400;
	47	 1	 34.25	 11.60	 0.0	 0.0	 1	     1.0330	   -12.4900	 0.0	 1	     1.0600	     0.9400;
	48	 1	 0.00	 0.00	 0.0	 0.0	 1	     1.0270	   -12.5900	 0.0	 1	     1.0600	     0.9400;
	49	 1	 20.76	 8.50	 0.0	 0.0	 1	     1.0360	   -12.9200	 0.0	 1	     1.0600	     0.9400;
	50	 1	 24.22	 10.50	 0.0	 0.0	 1	     1.0230	   -13.3900	 0.0	 1	     1.0600	     0.9400;
	51	 1	 20.76	 5.30	 0.0	 0.0	 1	     1.0520	   -12.5200	 0.0	 1	     1.0600	     0.9400;
	52	 1	 5.65	 2.20	 0.0	 0.0	 1	     0.9800	   -11.4700	 0.0	 1	     1.0600	     0.9400;
	53	 1	 23.06	 10.00	 0.0	 6.3	 1	     0.9710	   -12.2300	 0.0	 1	     1.0600	     0.9400;
	54	 1	 4.73	 1.40	 0.0	 0.0	 1	     0.9960	   -11.6900	 0.0	 1	     1.0600	     0.9400;
	55	 1	 7.84	 3.40	 0.0	 0.0	 1	     1.0310	   -10.7800	 0.0	 1	     1.0600	     0.9400;
	56	 1	 8.76	 2.20	 0.0	 0.0	 1	     0.9680	   -16.0400	 0.0	 1	     1.0600	     0.9400;
	57	 1	 7.73	 2.00	 0.0	 0.0	 1	     0.9650	   -16.5600	 0.0	 1	     1.0600	     0.9400;
];

%% generator data
%	bus	Pg	Qg	Qmax	Qmin	Vg	mBase	status	Pmax	Pmin	Pc1	Pc2	Qc1min	Qc1max	Qc2min	Qc2max	ramp_agc	ramp_10	ramp_30	ramp_q	apf
mpc.gen = [
	1	 1.0	 -44.0	 141.0	 -140.0	 1.04	 100.0	 1	 2	 0.0	 0.0	 0.0	 0.0	 0.0	 0.0	 0.0	 0.0	 0.0	 0.0	 0.0	 0.0; % COW
	2	 0.0	 -11.0	 50.0	 -17.0	 1.01	 100.0	 1	 0	 0.0	 0.0	 0.0	 0.0	 0.0	 0.0	 0.0	 0.0	 0.0	 0.0	 0.0	 0.0; % SYNC
	3	 587.0	 86.0	 332.0	 -332.0	 0.985	 100.0	 1	 663	 0.0	 0.0	 0.0	 0.0	 0.0	 0.0	 0.0	 0.0	 0.0	 0.0	 0.0	 0.0; % NG
	6	 0.0	 97.0	 116.4	 -116.4	 0.98	 100.0	 1	 0	 0.0	 0.0	 0.0	 0.0	 0.0	 0.0	 0.0	 0.0	 0.0	 0.0	 0.0	 0.0; % SYNC
	8	 460.0	 45.0	 293.0	 -293.0	 1.005	 100.0	 1	 586	 0.0	 0.0	 0.0	 0.0	 0.0	 0.0	 0.0	 0.0	 0.0	 0.0	 0.0	 0.0; % NG
	9	 0.0	 32.0	 38.4	 -38.4	 0.98	 100.0	 1	 0	 0.0	 0.0	 0.0	 0.0	 0.0	 0.0	 0.0	 0.0	 0.0	 0.0	 0.0	 0.0; % SYNC
	12	 441.0	 159.0	 249.0	 -249.0	 1.015	 100.0	 1	 498	 0.0	 0.0	 0.0	 0.0	 0.0	 0.0	 0.0	 0.0	 0.0	 0.0	 0.0	 0.0; % NG
];

%% generator cost data
%	2	startup	shutdown	n	c(n-1)	...	c0
mpc.gencost = [
	2	 0.0	 0.0	 3	   0.000000	   0.759510	   0.000000; % COW
	2	 0.0	 0.0	 3	   0.000000	   0.000000	   0.000000; % SYNC
	2	 0.0	 0.0	 3	   0.000000	   0.879823	   0.000000; % NG
	2	 0.0	 0.0	 3	   0.000000	   0.000000	   0.000000; % SYNC
	2	 0.0	 0.0	 3	   0.000000	   1.092701	   0.000000; % NG
	2	 0.0	 0.0	 3	   0.000000	   0.000000	   0.000000; % SYNC
	2	 0.0	 0.0	 3	   0.000000	   0.984369	   0.000000; % NG
];

%% branch data
%	fbus	tbus	r	x	b	rateA	rateB	rateC	ratio	angle	status	angmin	angmax
mpc.branch = [
	1	 2	 0.0083	 0.028	 0.129	 1004.0	 1004.0	 1004.0	 0.0	 0.0	 1	 -30.0	 30.0;
	2	 3	 0.0298	 0.085	 0.0818	 325.0	 325.0	 325.0	 0.0	 0.0	 1	 -30.0	 30.0;
	3	 4	 0.0112	 0.0366	 0.038	 766.0	 766.0	 766.0	 0.0	 0.0	 1	 -30.0	 30.0;
	4	 5	 0.0625	 0.132	 0.0258	 200.0	 200.0	 200.0	 0.0	 0.0	 1	 -30.0	 30.0;
	4	 6	 0.043	 0.148	 0.0348	 190.0	 190.0	 190.0	 0.0	 0.0	 1	 -30.0	 30.0;
	6	 7	 0.02	 0.102	 0.0276	 282.0	 282.0	 282.0	 0.0	 0.0	 1	 -30.0	 30.0;
	6	 8	 0.0339	 0.173	 0.047	 166.0	 166.0	 166.0	 0.0	 0.0	 1	 -30.0	 30.0;
	8	 9	 0.0099	 0.0505	 0.0548	 569.0	 569.0	 569.0	 0.0	 0.0	 1	 -30.0	 30.0;
	9	 10	 0.0369	 0.1679	 0.044	 170.0	 170.0	 170.0	 0.0	 0.0	 1	 -30.0	 30.0;
	9	 11	 0.0258	 0.0848	 0.0218	 330.0	 330.0	 330.0	 0.0	 0.0	 1	 -30.0	 30.0;
	9	 12	 0.0648	 0.295	 0.0772	 97.0	 97.0	 97.0	 0.0	 0.0	 1	 -30.0	 30.0;
	9	 13	 0.0481	 0.158	 0.0406	 177.0	 177.0	 177.0	 0.0	 0.0	 1	 -30.0	 30.0;
	13	 14	 0.0132	 0.0434	 0.011	 646.0	 646.0	 646.0	 0.0	 0.0	 1	 -30.0	 30.0;
	13	 15	 0.0269	 0.0869	 0.023	 322.0	 322.0	 322.0	 0.0	 0.0	 1	 -30.0	 30.0;
	1	 15	 0.0178	 0.091	 0.0988	 316.0	 316.0	 316.0	 0.0	 0.0	 1	 -30.0	 30.0;
	1	 16	 0.0454	 0.206	 0.0546	 139.0	 139.0	 139.0	 0.0	 0.0	 1	 -30.0	 30.0;
	1	 17	 0.0238	 0.108	 0.0286	 265.0	 265.0	 265.0	 0.0	 0.0	 1	 -30.0	 30.0;
	3	 15	 0.0162	 0.053	 0.0544	 529.0	 529.0	 529.0	 0.0	 0.0	 1	 -30.0	 30.0;
	4	 18	 0.0	 0.555	 0.0	 52.0	 52.0	 52.0	 0.97	 0.0	 1	 -30.0	 30.0;
	4	 18	 0.0	 0.43	 0.0	 68.0	 68.0	 68.0	 0.978	 0.0	 1	 -30.0	 30.0;
	5	 6	 0.0302	 0.0641	 0.0124	 413.0	 413.0	 413.0	 0.0	 0.0	 1	 -30.0	 30.0;
	7	 8	 0.0139	 0.0712	 0.0194	 404.0	 404.0	 404.0	 0.0	 0.0	 1	 -30.0	 30.0;
	10	 12	 0.0277	 0.1262	 0.0328	 227.0	 227.0	 227.0	 0.0	 0.0	 1	 -30.0	 30.0;
	11	 13	 0.0223	 0.0732	 0.0188	 383.0	 383.0	 383.0	 0.0	 0.0	 1	 -30.0	 30.0;
	12	 13	 0.0178	 0.058	 0.0604	 483.0	 483.0	 483.0	 0.0	 0.0	 1	 -30.0	 30.0;
	12	 16	 0.018	 0.0813	 0.0216	 352.0	 352.0	 352.0	 0.0	 0.0	 1	 -30.0	 30.0;
	12	 17	 0.0397	 0.179	 0.0476	 159.0	 159.0	 159.0	 0.0	 0.0	 1	 -30.0	 30.0;
	14	 15	 0.0171	 0.0547	 0.0148	 511.0	 511.0	 511.0	 0.0	 0.0	 1	 -30.0	 30.0;
	18	 19	 0.461	 0.685	 0.0	 35.0	 35.0	 35.0	 0.0	 0.0	 1	 -30.0	 30.0;
	19	 20	 0.283	 0.434	 0.0	 56.0	 56.0	 56.0	 0.0	 0.0	 1	 -30.0	 30.0;
	21	 20	 0.0	 0.7767	 0.0	 37.0	 37.0	 37.0	 1.043	 0.0	 1	 -30.0	 30.0;
	21	 22	 0.0736	 0.117	 0.0	 212.0	 212.0	 212.0	 0.0	 0.0	 1	 -30.0	 30.0;
	22	 23	 0.0099	 0.0152	 0.0	 1616.0	 1616.0	 1616.0	 0.0	 0.0	 1	 -30.0	 30.0;
	23	 24	 0.166	 0.256	 0.0084	 96.0	 96.0	 96.0	 0.0	 0.0	 1	 -30.0	 30.0;
	24	 25	 0.0	 1.182	 0.0	 24.0	 24.0	 24.0	 1.0	 0.0	 1	 -30.0	 30.0;
	24	 25	 0.0	 1.23	 0.0	 23.0	 23.0	 23.0	 1.0	 0.0	 1	 -30.0	 30.0;
	24	 26	 0.0	 0.0473	 0.0	 620.0	 620.0	 620.0	 1.043	 0.0	 1	 -30.0	 30.0;
	26	 27	 0.165	 0.254	 0.0	 96.0	 96.0	 96.0	 0.0	 0.0	 1	 -30.0	 30.0;
	27	 28	 0.0618	 0.0954	 0.0	 258.0	 258.0	 258.0	 0.0	 0.0	 1	 -30.0	 30.0;
	28	 29	 0.0418	 0.0587	 0.0	 407.0	 407.0	 407.0	 0.0	 0.0	 1	 -30.0	 30.0;
	7	 29	 0.0	 0.0648	 0.0	 452.0	 452.0	 452.0	 0.967	 0.0	 1	 -30.0	 30.0;
	25	 30	 0.135	 0.202	 0.0	 120.0	 120.0	 120.0	 0.0	 0.0	 1	 -30.0	 30.0;
	30	 31	 0.326	 0.497	 0.0	 49.0	 49.0	 49.0	 0.0	 0.0	 1	 -30.0	 30.0;
	31	 32	 0.507	 0.755	 0.0	 32.0	 32.0	 32.0	 0.0	 0.0	 1	 -30.0	 30.0;
	32	 33	 0.0392	 0.036	 0.0	 551.0	 551.0	 551.0	 0.0	 0.0	 1	 -30.0	 30.0;
	34	 32	 0.0	 0.953	 0.0	 30.0	 30.0	 30.0	 0.975	 0.0	 1	 -30.0	 30.0;
	34	 35	 0.052	 0.078	 0.0032	 312.0	 312.0	 312.0	 0.0	 0.0	 1	 -30.0	 30.0;
	35	 36	 0.043	 0.0537	 0.0016	 426.0	 426.0	 426.0	 0.0	 0.0	 1	 -30.0	 30.0;
	36	 37	 0.029	 0.0366	 0.0	 628.0	 628.0	 628.0	 0.0	 0.0	 1	 -30.0	 30.0;
	37	 38	 0.0651	 0.1009	 0.002	 244.0	 244.0	 244.0	 0.0	 0.0	 1	 -30.0	 30.0;
	37	 39	 0.0239	 0.0379	 0.0	 654.0	 654.0	 654.0	 0.0	 0.0	 1	 -30.0	 30.0;
	36	 40	 0.03	 0.0466	 0.0	 529.0	 529.0	 529.0	 0.0	 0.0	 1	 -30.0	 30.0;
	22	 38	 0.0192	 0.0295	 0.0	 833.0	 833.0	 833.0	 0.0	 0.0	 1	 -30.0	 30.0;
	11	 41	 0.0	 0.749	 0.0	 39.0	 39.0	 39.0	 0.955	 0.0	 1	 -30.0	 30.0;
	41	 42	 0.207	 0.352	 0.0	 71.0	 71.0	 71.0	 0.0	 0.0	 1	 -30.0	 30.0;
	41	 43	 0.0	 0.412	 0.0	 71.0	 71.0	 71.0	 0.0	 0.0	 1	 -30.0	 30.0;
	38	 44	 0.0289	 0.0585	 0.002	 449.0	 449.0	 449.0	 0.0	 0.0	 1	 -30.0	 30.0;
	15	 45	 0.0	 0.1042	 0.0	 281.0	 281.0	 281.0	 0.955	 0.0	 1	 -30.0	 30.0;
	14	 46	 0.0	 0.0735	 0.0	 399.0	 399.0	 399.0	 0.9	 0.0	 1	 -30.0	 30.0;
	46	 47	 0.023	 0.068	 0.0032	 408.0	 408.0	 408.0	 0.0	 0.0	 1	 -30.0	 30.0;
	47	 48	 0.0182	 0.0233	 0.0	 992.0	 992.0	 992.0	 0.0	 0.0	 1	 -30.0	 30.0;
	48	 49	 0.0834	 0.129	 0.0048	 190.0	 190.0	 190.0	 0.0	 0.0	 1	 -30.0	 30.0;
	49	 50	 0.0801	 0.128	 0.0	 194.0	 194.0	 194.0	 0.0	 0.0	 1	 -30.0	 30.0;
	50	 51	 0.1386	 0.22	 0.0	 112.0	 112.0	 112.0	 0.0	 0.0	 1	 -30.0	 30.0;
	10	 51	 0.0	 0.0712	 0.0	 411.0	 411.0	 411.0	 0.93	 0.0	 1	 -30.0	 30.0;
	13	 49	 0.0	 0.191	 0.0	 153.0	 153.0	 153.0	 0.895	 0.0	 1	 -30.0	 30.0;
	29	 52	 0.1442	 0.187	 0.0	 124.0	 124.0	 124.0	 0.0	 0.0	 1	 -30.0	 30.0;
	52	 53	 0.0762	 0.0984	 0.0	 235.0	 235.0	 235.0	 0.0	 0.0	 1	 -30.0	 30.0;
	53	 54	 0.1878	 0.232	 0.0	 98.0	 98.0	 98.0	 0.0	 0.0	 1	 -30.0	 30.0;
	54	 55	 0.1732	 0.2265	 0.0	 102.0	 102.0	 102.0	 0.0	 0.0	 1	 -30.0	 30.0;
	11	 43	 0.0	 0.153	 0.0	 191.0	 191.0	 191.0	 0.958	 0.0	 1	 -30.0	 30.0;
	44	 45	 0.0624	 0.1242	 0.004	 211.0	 211.0	 211.0	 0.0	 0.0	 1	 -30.0	 30.0;
	40	 56	 0.0	 1.195	 0.0	 24.0	 24.0	 24.0	 0.958	 0.0	 1	 -30.0	 30.0;
	56	 41	 0.553	 0.549	 0.0	 37.0	 37.0	 37.0	 0.0	 0.0	 1	 -30.0	 30.0;
	56	 42	 0.2125	 0.354	 0.0	 71.0	 71.0	 71.0	 0.0	 0.0	 1	 -30.0	 30.0;
	39	 57	 0.0	 1.355	 0.0	 21.0	 21.0	 21.0	 0.98	 0.0	 1	 -30.0	 30.0;
	57	 56	 0.174	 0.26	 0.0	 93.0	 93.0	 93.0	 0.0	 0.0	 1	 -30.0	 30.0;
	38	 49	 0.115	 0.177	 0.003	 138.0	 138.0	 138.0	 0.0	 0.0	 1	 -30.0	 30.0;
	38	 48	 0.0312	 0.0482	 0.0	 510.0	 510.0	 510.0	 0.0	 0.0	 1	 -30.0	 30.0;
	9	 55	 0.0	 0.1205	 0.0	 243.0	 243.0	 243.0	 0.94	 0.0	 1	 -30.0	 30.0;
];

% INFO    : === Translation Options ===
% INFO    : Load Model:                  from file ./nesta_case57_ieee.dat.sol
% INFO    : Gen Active Capacity Model:   stat
% INFO    : Gen Reactive Capacity Model: al50ag
% INFO    : Gen Active Cost Model:       stat
% INFO    : 
% INFO    : === Load Replacement Notes ===
% INFO    : Bus 1	: Pd=55.0, Qd=17.0 -> Pd=63.42, Qd=17.00
% INFO    : Bus 2	: Pd=3.0, Qd=88.0 -> Pd=3.46, Qd=88.00
% INFO    : Bus 3	: Pd=41.0, Qd=21.0 -> Pd=47.28, Qd=21.00
% INFO    : Bus 4	: Pd=0.0, Qd=0.0 -> Pd=0.00, Qd=0.00
% INFO    : Bus 5	: Pd=13.0, Qd=4.0 -> Pd=14.99, Qd=4.00
% INFO    : Bus 6	: Pd=75.0, Qd=2.0 -> Pd=86.49, Qd=2.00
% INFO    : Bus 7	: Pd=0.0, Qd=0.0 -> Pd=0.00, Qd=0.00
% INFO    : Bus 8	: Pd=150.0, Qd=22.0 -> Pd=172.98, Qd=22.00
% INFO    : Bus 9	: Pd=121.0, Qd=26.0 -> Pd=139.53, Qd=26.00
% INFO    : Bus 10	: Pd=5.0, Qd=2.0 -> Pd=5.77, Qd=2.00
% INFO    : Bus 11	: Pd=0.0, Qd=0.0 -> Pd=0.00, Qd=0.00
% INFO    : Bus 12	: Pd=377.0, Qd=24.0 -> Pd=434.75, Qd=24.00
% INFO    : Bus 13	: Pd=18.0, Qd=2.3 -> Pd=20.76, Qd=2.30
% INFO    : Bus 14	: Pd=10.5, Qd=5.3 -> Pd=12.11, Qd=5.30
% INFO    : Bus 15	: Pd=22.0, Qd=5.0 -> Pd=25.37, Qd=5.00
% INFO    : Bus 16	: Pd=43.0, Qd=3.0 -> Pd=49.59, Qd=3.00
% INFO    : Bus 17	: Pd=42.0, Qd=8.0 -> Pd=48.43, Qd=8.00
% INFO    : Bus 18	: Pd=27.2, Qd=9.8 -> Pd=31.37, Qd=9.80
% INFO    : Bus 19	: Pd=3.3, Qd=0.6 -> Pd=3.81, Qd=0.60
% INFO    : Bus 20	: Pd=2.3, Qd=1.0 -> Pd=2.65, Qd=1.00
% INFO    : Bus 21	: Pd=0.0, Qd=0.0 -> Pd=0.00, Qd=0.00
% INFO    : Bus 22	: Pd=0.0, Qd=0.0 -> Pd=0.00, Qd=0.00
% INFO    : Bus 23	: Pd=6.3, Qd=2.1 -> Pd=7.27, Qd=2.10
% INFO    : Bus 24	: Pd=0.0, Qd=0.0 -> Pd=0.00, Qd=0.00
% INFO    : Bus 25	: Pd=6.3, Qd=3.2 -> Pd=7.27, Qd=3.20
% INFO    : Bus 26	: Pd=0.0, Qd=0.0 -> Pd=0.00, Qd=0.00
% INFO    : Bus 27	: Pd=9.3, Qd=0.5 -> Pd=10.72, Qd=0.50
% INFO    : Bus 28	: Pd=4.6, Qd=2.3 -> Pd=5.30, Qd=2.30
% INFO    : Bus 29	: Pd=17.0, Qd=2.6 -> Pd=19.60, Qd=2.60
% INFO    : Bus 30	: Pd=3.6, Qd=1.8 -> Pd=4.15, Qd=1.80
% INFO    : Bus 31	: Pd=5.8, Qd=2.9 -> Pd=6.69, Qd=2.90
% INFO    : Bus 32	: Pd=1.6, Qd=0.8 -> Pd=1.85, Qd=0.80
% INFO    : Bus 33	: Pd=3.8, Qd=1.9 -> Pd=4.38, Qd=1.90
% INFO    : Bus 34	: Pd=0.0, Qd=0.0 -> Pd=0.00, Qd=0.00
% INFO    : Bus 35	: Pd=6.0, Qd=3.0 -> Pd=6.92, Qd=3.00
% INFO    : Bus 36	: Pd=0.0, Qd=0.0 -> Pd=0.00, Qd=0.00
% INFO    : Bus 37	: Pd=0.0, Qd=0.0 -> Pd=0.00, Qd=0.00
% INFO    : Bus 38	: Pd=14.0, Qd=7.0 -> Pd=16.14, Qd=7.00
% INFO    : Bus 39	: Pd=0.0, Qd=0.0 -> Pd=0.00, Qd=0.00
% INFO    : Bus 40	: Pd=0.0, Qd=0.0 -> Pd=0.00, Qd=0.00
% INFO    : Bus 41	: Pd=6.3, Qd=3.0 -> Pd=7.27, Qd=3.00
% INFO    : Bus 42	: Pd=7.1, Qd=4.4 -> Pd=8.19, Qd=4.40
% INFO    : Bus 43	: Pd=2.0, Qd=1.0 -> Pd=2.31, Qd=1.00
% INFO    : Bus 44	: Pd=12.0, Qd=1.8 -> Pd=13.84, Qd=1.80
% INFO    : Bus 45	: Pd=0.0, Qd=0.0 -> Pd=0.00, Qd=0.00
% INFO    : Bus 46	: Pd=0.0, Qd=0.0 -> Pd=0.00, Qd=0.00
% INFO    : Bus 47	: Pd=29.7, Qd=11.6 -> Pd=34.25, Qd=11.60
% INFO    : Bus 48	: Pd=0.0, Qd=0.0 -> Pd=0.00, Qd=0.00
% INFO    : Bus 49	: Pd=18.0, Qd=8.5 -> Pd=20.76, Qd=8.50
% INFO    : Bus 50	: Pd=21.0, Qd=10.5 -> Pd=24.22, Qd=10.50
% INFO    : Bus 51	: Pd=18.0, Qd=5.3 -> Pd=20.76, Qd=5.30
% INFO    : Bus 52	: Pd=4.9, Qd=2.2 -> Pd=5.65, Qd=2.20
% INFO    : Bus 53	: Pd=20.0, Qd=10.0 -> Pd=23.06, Qd=10.00
% INFO    : Bus 54	: Pd=4.1, Qd=1.4 -> Pd=4.73, Qd=1.40
% INFO    : Bus 55	: Pd=6.8, Qd=3.4 -> Pd=7.84, Qd=3.40
% INFO    : Bus 56	: Pd=7.6, Qd=2.2 -> Pd=8.76, Qd=2.20
% INFO    : Bus 57	: Pd=6.7, Qd=2.0 -> Pd=7.73, Qd=2.00
% INFO    : 
% INFO    : === Generator Setpoint Replacement Notes ===
% INFO    : Gen at bus 1	: Pg=128.9, Qg=-16.1 -> Pg=1.0, Qg=-44.0
% INFO    : Gen at bus 2	: Pg=0.0, Qg=-0.8 -> Pg=0.0, Qg=-11.0
% INFO    : Gen at bus 3	: Pg=40.0, Qg=-1.0 -> Pg=587.0, Qg=86.0
% INFO    : Gen at bus 6	: Pg=0.0, Qg=0.8 -> Pg=0.0, Qg=97.0
% INFO    : Gen at bus 8	: Pg=450.0, Qg=62.1 -> Pg=460.0, Qg=45.0
% INFO    : Gen at bus 9	: Pg=0.0, Qg=2.2 -> Pg=0.0, Qg=32.0
% INFO    : Gen at bus 12	: Pg=310.0, Qg=128.5 -> Pg=441.0, Qg=159.0
% INFO    : 
% INFO    : === Generator Reactive Capacity Atleast Setpoint Value Notes ===
% INFO    : Gen at bus 3	: Qg 86.0, Qmin -10.0, Qmax 31.0 -> Qmin -103.2, Qmax 103.2
% INFO    : Gen at bus 6	: Qg 97.0, Qmin -8.0, Qmax 25.0 -> Qmin -116.4, Qmax 116.4
% INFO    : Gen at bus 9	: Qg 32.0, Qmin -3.0, Qmax 9.0 -> Qmin -38.4, Qmax 38.4
% INFO    : Gen at bus 12	: Qg 159.0, Qmin -150.0, Qmax 155.0 -> Qmin -190.8, Qmax 190.8
% INFO    : 
% INFO    : === Generator Classification Notes ===
% INFO    : SYNC   3   -     0.00
% INFO    : COW    1   -     0.07
% INFO    : NG     3   -    99.93
% INFO    : 
% INFO    : === Generator Active Capacity Stat Model Notes ===
% INFO    : Gen at bus 1 - COW	: Pg=1.0, Pmax=282.0 -> Pmax=2   samples: 63
% INFO    : Gen at bus 2 - SYNC	: Pg=0.0, Pmax=0.0 -> Pmax=0   samples: 0
% WARNING : Failed to find a generator capacity within (587.0-2935.0) after 100 samples, using percent increase model
% INFO    : Gen at bus 3 - NG	: Pg=587.0, Pmax=61.0 -> Pmax=663   samples: 100
% INFO    : Gen at bus 6 - SYNC	: Pg=0.0, Pmax=0.0 -> Pmax=0   samples: 0
% INFO    : Gen at bus 8 - NG	: Pg=460.0, Pmax=510.0 -> Pmax=586   samples: 70
% INFO    : Gen at bus 9 - SYNC	: Pg=0.0, Pmax=0.0 -> Pmax=0   samples: 0
% WARNING : Failed to find a generator capacity within (441.0-2205.0) after 100 samples, using percent increase model
% INFO    : Gen at bus 12 - NG	: Pg=441.0, Pmax=524.0 -> Pmax=498   samples: 100
% INFO    : 
% INFO    : === Generator Active Capacity LB Model Notes ===
% INFO    : 
% INFO    : === Generator Reactive Capacity Atleast Max 50 Percent Active Model Notes ===
% INFO    : Gen at bus 3 - NG	: Pmax 663.0, Qmin -103.2, Qmax 103.2 -> Qmin -332.0, Qmax 332.0
% INFO    : Gen at bus 8 - NG	: Pmax 586.0, Qmin -140.0, Qmax 200.0 -> Qmin -293.0, Qmax 293.0
% INFO    : Gen at bus 12 - NG	: Pmax 498.0, Qmin -190.8, Qmax 190.8 -> Qmin -249.0, Qmax 249.0
% INFO    : 
% INFO    : === Generator Active Cost Stat Model Notes ===
% INFO    : Updated Generator Cost: COW - 0.0 0.750694 0.0 -> 0 0.759509607431 0
% INFO    : Updated Generator Cost: SYNC - 0.0 0.0 0.0 -> 0 0.0 0
% INFO    : Updated Generator Cost: NG - 0.0 0.836961 0.0 -> 0 0.879823187547 0
% INFO    : Updated Generator Cost: SYNC - 0.0 0.0 0.0 -> 0 0.0 0
% INFO    : Updated Generator Cost: NG - 0.0 1.172038 0.0 -> 0 1.09270133298 0
% INFO    : Updated Generator Cost: SYNC - 0.0 0.0 0.0 -> 0 0.0 0
% INFO    : Updated Generator Cost: NG - 0.0 0.787329 0.0 -> 0 0.984368716198 0
% INFO    : 
% INFO    : === Writing Matpower Case File Notes ===
